 825.3 321.747 6.502002766292574
  6.3084716796875 319.5774810874434 6.512133598327637 4.388185501098633 1.2535839080810547
  278.5657958984375 319.8446519002822 5.854070663452148 4.519403457641602 1.6767997741699219
  556.9881591796875 319.97029827663204 5.388884544372559 4.6373748779296875 2.1932010650634766
  841.9080810546875 319.9857027272133 5.14634895324707 4.741718292236328 2.65157413482666
  1133.7203369140625 319.9837979246062 5.136246204376221 4.871013641357422 2.9905567169189453
  1432.6805419921875 319.82936480647464 5.267602443695068 5.133274078369141 3.305572509765625
  1739.2913818359375 319.82154452545825 5.398992538452148 5.501003265380859 3.682697296142578
  2054.0537109375 319.76366168573855 5.4192094802856445 6.151214599609375 4.253810882568359
  2377.62890625 319.89710046751156 5.267602443695068 7.239923477172852 5.083728790283203
  2710.8095703125 320.1206564214928 4.924128532409668 8.752273559570312 6.018810272216797
  3054.42578125 320.514153697988 4.419445514678955 10.151786804199219 7.152923583984375
  3408.97900390625 321.11669379593366 3.8124797344207764 11.090335845947266 8.705310821533203
  3776.2490234375 321.9465874658349 3.2545576095581055 11.264741897583008 10.75346565246582
  4157.474609375 323.0145216670284 2.5253615379333496 10.521429061889648 12.632940292358398
