 843.0 320.32553 5.955255017817383
  189.1663818359375 317.0917823817679 5.752906799316406 10.1304326114716 1.909774027418
  459.2821044921875 317.42002913071764 5.449536323547363 9.9268656033022 5.845402852026
  735.7657470703125 317.7026082250864 5.176660060882568 8.5697522155064 9.1703306521258
  1018.8626708984375 317.87336818866527 4.823151111602783 5.5162470929657 11.0024337256502
  1308.8560791015625 317.9185308417738 4.47998046875 -3.2371342583175 11.9524130971073
  1606.1671142578125 318.03770256157424 4.358917236328125 -6.6299177278072 12.4274027828359
  1911.2022705078125 318.25498475691154 4.147127151489258 -9.6834228503478 13.038103807344
  2224.72412109375 318.7222197839786 3.754040002822876 -13.0083506504477 14.3952171951398
  2547.51416015625 319.4582875898978 3.3713276386260986 -16.1297114423781 16.0916089298847
  2880.484375 320.44862683021154 2.998966932296753 -17.4189691607842 16.8380212931724
  3224.521484375 321.67702517162286 2.5163159370422363 -18.8439382179699 17.8558563340193
  3580.6904296875 323.0790146334521 1.896590232849121 -19.9296289282065 18.7379800360866
  3950.341796875 324.8642125625711 1.1793893575668335 -20.8796082996636 19.3486810605947
  4334.80859375 326.6710635896563 0.6954833269119263 -21.3581540363348 19.9702653134726
  4735.3603515625 328.3901928446267 0.35712748765945435 -21.5923382085676 20.2201153054464
