 843.0 320.32553 5.955255017817383
  189.1663818359375 317.0917823817679 5.752906799316406 2.5704402923583984 5.09468936920166
  459.2821044921875 317.42002913071764 5.449536323547363 2.399087905883789 5.891911506652832
  735.7657470703125 317.7026082250864 5.176660060882568 2.399749755859375 6.925798416137695
  1018.8626708984375 317.87336818866527 4.823151111602783 2.430633544921875 7.84754753112793
  1308.8560791015625 317.9185308417738 4.47998046875 2.371734619140625 8.592957496643066
  1606.1671142578125 318.03770256157424 4.358917236328125 1.8978233337402344 9.09613037109375
  1911.2022705078125 318.25498475691154 4.147127151489258 0.9186697006225586 9.598648071289062
  2224.72412109375 318.7222197839786 3.754040002822876 -0.9123363494873047 10.220447540283203
  2547.51416015625 319.4582875898978 3.3713276386260986 -3.566953659057617 10.474002838134766
  2880.484375 320.44862683021154 2.998966932296753 -5.9914093017578125 10.250162124633789
  3224.521484375 321.67702517162286 2.5163159370422363 -7.239240646362305 9.92718505859375
  3580.6904296875 323.0790146334521 1.896590232849121 -6.833797454833984 9.808040618896484
  3950.341796875 324.8642125625711 1.1793893575668335 -5.199550628662109 9.755573272705078
  4334.80859375 326.6710635896563 0.6954833269119263 -3.2228050231933594 9.597694396972656
  4735.3603515625 328.3901928446267 0.35712748765945435 -1.6371307373046875 9.465240478515625
  5153.04638671875 329.49441974660596 0.1760309785604477 -0.7920799255371094 9.170173645019531
  5588.66357421875 330.21076637181346 0.11101231724023819 -0.7154273986816406 8.579347610473633
  6043.81396484375 330.70181523988504 0.09400883316993713 -0.8563671112060547 7.70085334777832
  6520.66943359375 331.3994214778155 0.09800960123538971 -0.9112939834594727 6.700538635253906
  7021.8359375 332.28716204473415 0.09300865232944489 -1.0870628356933594 6.061592102050781
  7551.58984375 334.41831713216595 0.06800463050603867 -0.9572544097900391 6.313117980957031
  8117.0166015625 338.57321175625543 0.04500202834606171 -1.1503925323486328 7.657112121582031
  8724.544921875 342.55779492680654 0.028900835663080215 -1.6106853485107422 9.012741088867188
  9378.9326171875 344.71926499397347 0.025400646030902863 -1.8329620361328125 8.488388061523438
  10085.5830078125 347.1300949123402 0.027200737968087196 -2.103281021118164 7.445899963378906
  10858.958984375 351.937980237485 0.019800391048192978 -3.3530941009521484 7.661323547363281
  11718.8837890625 357.87710048978323 0.010000099427998066 -5.590785980224609 8.58768081665039
  12686.5673828125 363.1624331606772 0.006350040435791016 -5.100481033325195 8.90108871459961
  13796.763671875 372.00179366447804 0.005060025490820408 -2.617572784423828 8.424755096435547
  15124.1865234375 390.0996317929276 0.003980016335844994 -2.9717578887939453 6.752079010009766
  16826.994140625 425.7729637514073 0.0031300096306949854 -5.19840145111084 5.345789909362793
  19287.638671875 497.7135873085455 0.003538012271746993 -4.608699798583984 1.0595417022705078  
